IEEE57.PWF
TITU
IEEE 57 Bus Test Case                                                           
DBAR
(Num)OETGb(   nome   )Gl( V)( A)( Pg)( Qg)( Qn)( Qm)(Bc  )( Pl)( Ql)( Sh)Are(Vf)M(1)(2)(3)(4)(5)(6)(7)(8)(9)(10
    1 L2  Kanawha---V1  1040  0.479.8130.3-999999999        55.  17.       11000                                   
    2 L1  Turner----V1  1010-1.2   0.-.761 -17.  50.         3.  88.       11000                                   
    3 L1  Logan-----V1   985 -6.  40.4.004 -10.  60.        41.  21.       11000                                   
    4 L   Sprigg----V1   980-7.3                                           11000                                   
    5 L   Barra-5---V1   976-8.6                            13.   4.       11000                                   
    6 L1  Beaver-Ck-V1   980-8.7   0.4.436  -8.  25.        75.   2.       11000                                   
    7 L   Barra-7---V1   982-7.7                                           11000                                   
    8 L1  Clinch-Rv-V1  1005-4.6 450. 65.3-140. 200.       150.  22.       11000                                   
    9 L1  Saltville-V1   980-9.7   0.2.371  -3.   9.       121.  26.       11000                                   
   10 L   Barra-10--V1   983-12.                             5.   2.       11000                                   
   11 L   Tazewell--V1   972-10.                                           11000                                   
   12 L1  Glen-Lyn--V1  1015-11. 310.127.7-150. 155.       377.  24.       11000                                   
   13 L   Barra-13--V1   981-9.9                            18.  2.3       11000                                   
   14 L   Barra-14--V1   973-9.4                           10.5  5.3       11000                                   
   15 L   Barra-15--V1   987-7.2                            22.   5.       11000                                   
   16 L   Barra-16--V1  1013-8.9                            43.   3.       11000                                   
   17 L   Barra-17--V1  1017-5.4                            42.   8.       11000                                   
   18 L   Sprigg----V2   947-17.                           27.2  9.8  10.  11000                                   
   19 L   Barra-19--V2   922-17.                            3.3   .6       11000                                   
   20 L   Barra-20--V2   920-16.                            2.3   1.       11000                                   
   21 L   Barra-21--V3   915-14.                                           11000                                   
   22 L   Barra-22--V3   918-14.                                           11000                                   
   23 L   Barra-23--V3   917-14.                            6.3  2.1       11000                                   
   24 L   Barra-24--V3   906-14.                                           11000                                   
   25 L   Barra-25--V4   838-25.                            6.3  3.2  5.9  11000                                   
   26 L   Barra-26--V5   908-13.                                           11000                                   
   27 L   Barra-27--V5   937-12.                            9.3   .5       11000                                   
   28 L   Barra-28--V5   955-11.                            4.6  2.3       11000                                   
   29 L   Barra-29--V5   971-10.                            17.  2.6       11000                                   
   30 L   Barra-30--V4   818-25.                            3.6  1.8       11000                                   
   31 L   Barra-31--V4   793-25.                            5.8  2.9       11000                                   
   32 L   Barra-32--V4   821-23.                            1.6   .8       11000                                   
   33 L   Barra-33--V4   818-23.                            3.8  1.9       11000                                   
   34 L   Barra-34--V3   865-16.                                           11000                                   
   35 L   Barra-35--V3   874-15.                             6.   3.       11000                                   
   36 L   Barra-36--V3   886-15.                                           11000                                   
   37 L   Barra-37--V3   895-15.                                           11000                                   
   38 L   Barra-38--V3   922-14.                            14.   7.       11000                                   
   39 L   Barra-39--V3   894-15.                                           11000                                   
   40 L   Barra-40--V3   885-15.                                           11000                                   
   41 L   Tazewell--V6   931-15.                            6.3   3.       11000                                   
   42 L   Barra-42--V6   888-17.                            7.1  4.4       11000                                   
   43 L   Tazewell--V7   959-12.                             2.   1.       11000                                   
   44 L   Barra-44--V3   935-13.                            12.  1.8       11000                                   
   45 L   Barra-45--V3   974-9.8                                           11000                                   
   46 L   Barra-46--V3   959-11.                                           11000                                   
   47 L   Barra-47--V3   936-13.                           29.7 11.6       11000                                   
   48 L   Barra-48--V3   932-13.                                           11000                                   
   49 L   Barra-49--V3   938-13.                            18.  8.5       11000                                   
   50 L   Barra-50--V3   930-14.                            21. 10.5       11000                                   
   51 L   Barra-51--V3   972-13.                            18.  5.3       11000                                   
   52 L   Barra-52--V5   933-12.                            4.9  2.2       11000                                   
   53 L   Barra-53--V5   920-13.                            20.  10.  6.3  11000                                   
   54 L   Barra-54--V5   940-12.                            4.1  1.4       11000                                   
   55 L   Saltville-V5   970-11.                            6.8  3.4       11000                                   
   56 L   Barra-56--V6   879-17.                            7.6  2.2       11000                                   
   57 L   Barra-57--V6   870-18.                            6.7   2.       11000                                   
99999
DLIN
(De )d O d(Pa )NcEP ( R% )( X% )(Mvar)(Tap)(Tmn)(Tmx)(Phs)(Bc  )(Cn)(Ce)Ns(Cq)(1)(2)(3)(4)(5)(6)(7)(8)(9)(10
    1         2 1      .83   2.8  12.9                          99999999  9999                                
    1        15 1     1.78   9.1  9.88                          99999999  9999                                
    1        16 1     4.54  20.6  5.46                          99999999  9999                                
    1        17 1     2.38  10.8  2.86                          99999999  9999                                
    2         3 1     2.98   8.5  8.18                          99999999  9999                                
    3         4 1     1.12  3.66   3.8                          99999999  9999                                
    3        15 1     1.62   5.3  5.44                          99999999  9999                                
    4         5 1     6.25  13.2  2.58                          99999999  9999                                
    4         6 1      4.3  14.8  3.48                          99999999  9999                                
    4        18 1           55.5         1.                     99999999  9999                                
    5         6 1     3.02  6.41  1.24                          99999999  9999                                
    6         7 1       2.  10.2  2.76                          99999999  9999                                
    6         8 1     3.39  17.3   4.7                          99999999  9999                                
    7         8 1     1.39  7.12  1.94                          99999999  9999                                
    7        29 1           6.48         1.                     99999999  9999                                
    8         9 1      .99  5.05  5.48                          99999999  9999                                
    9        10 1     3.69 16.79   4.4                          99999999  9999                                
    9        11 1     2.58  8.48  2.18                          99999999  9999                                
    9        12 1     6.48  29.5  7.72                          99999999  9999                                
    9        13 1     4.81  15.8  4.06                          99999999  9999                                
    9        55 1          12.05         1.                     99999999  9999                                
   10        12 1     2.77 12.62  3.28                          99999999  9999                                
   10        51 1           7.12         1.                     99999999  9999                                
   11        13 1     2.23  7.32  1.88                          99999999  9999                                
   11        41 1           74.9         1.                     99999999  9999                                
   11        43 1           15.3         1.                     99999999  9999                                
   12        13 1     1.78   5.8  6.04                          99999999  9999                                
   12        16 1      1.8  8.13  2.16                          99999999  9999                                
   12        17 1     3.97  17.9  4.76                          99999999  9999                                
   13        14 1     1.32  4.34   1.1                          99999999  9999                                
   13        15 1     2.69  8.69   2.3                          99999999  9999                                
   13        49 1           19.1         1.                     99999999  9999                                
   14        15 1     1.71  5.47  1.48                          99999999  9999                                
   14        46 1           7.35         1.                     99999999  9999                                
   15        45 1          10.42         1.                     99999999  9999                                
   18        19 1     46.1  68.5                                99999999  9999                                
   19        20 1     28.3  43.4                                99999999  9999                                
   21        20 1          77.67         1.                     99999999  9999                                
   21        22 1     7.36  11.7                                99999999  9999                                
   22        23 1      .99  1.52                                99999999  9999                                
   22        38 1     1.92  2.95                                99999999  9999                                
   23        24 1     16.6  25.6   .84                          99999999  9999                                
   24        25 1          118.2         1.                     99999999  9999                                
   24        26 1           4.73         1.                     99999999  9999                                
   25        30 1     13.5  20.2                                99999999  9999                                
   26        27 1     16.5  25.4                                99999999  9999                                
   27        28 1     6.18  9.54                                99999999  9999                                
   28        29 1     4.18  5.87                                99999999  9999                                
   29        52 1    14.42  18.7                                99999999  9999                                
   30        31 1     32.6  49.7                                99999999  9999                                
   31        32 1     50.7  75.5                                99999999  9999                                
   32        33 1     3.92   3.6                                99999999  9999                                
   34        32 1           95.3         1.                     99999999  9999                                
   34        35 1      5.2   7.8   .32                          99999999  9999                                
   35        36 1      4.3  5.37   .16                          99999999  9999                                
   36        37 1      2.9  3.66                                99999999  9999                                
   36        40 1       3.  4.66                                99999999  9999                                
   37        38 1     6.51 10.09    .2                          99999999  9999                                
   37        39 1     2.39  3.79                                99999999  9999                                
   38        44 1     2.89  5.85    .2                          99999999  9999                                
   38        48 1     3.12  4.82                                99999999  9999                                
   38        49 1     11.5  17.7    .3                          99999999  9999                                
   39        57 1          135.5         1.                     99999999  9999                                
   40        56 1          119.5         1.                     99999999  9999                                
   41        42 1     20.7  35.2                                99999999  9999                                
   41        43 1           41.2                                99999999  9999                                
   44        45 1     6.24 12.42    .4                          99999999  9999                                
   46        47 1      2.3   6.8   .32                          99999999  9999                                
   47        48 1     1.82  2.33                                99999999  9999                                
   48        49 1     8.34  12.9   .48                          99999999  9999                                
   49        50 1     8.01  12.8                                99999999  9999                                
   50        51 1    13.86   22.                                99999999  9999                                
   52        53 1     7.62  9.84                                99999999  9999                                
   53        54 1    18.78  23.2                                99999999  9999                                
   54        55 1    17.32 22.65                                99999999  9999                                
   56        41 1     55.3  54.9                                99999999  9999                                
   56        42 1    21.25  35.4                                99999999  9999                                
   57        56 1     17.4   26.                                99999999  9999                                
99999
FIM
